*SPEF IEEE 1481 - 1999
*VENDOR ANSYS
*PROGRAM "CPA"
*VERSION 2023 R2
*DESIGN_FLOW ""
*DIVIDER /
*DELIMITER :
*BUS_DELIMITER []
*T_UNIT 1 NS
*C_UNIT 1 PF
*R_UNIT 1 OHM
*L_UNIT 1 UH
*NAME_MAP
*P67 BGA_RXDATA0+_Group_SINK_
*P69 BGA_RXDATA0-_Group_SINK_
*P70 BGA_RXDATA1+_Group_SINK_
*P71 BGA_RXDATA1-_Group_SINK_
*P72 BGA_RXDATA2+_Group_SINK_
*P73 BGA_RXDATA2-_Group_SINK_
*P74 BGA_RXDATA3+_Group_SINK_
*P75 BGA_RXDATA3-_Group_SINK_
*P76 BGA_RXDATA4+_Group_SINK_
*P77 BGA_RXDATA4-_Group_SINK_
*P78 BGA_RXDATA5+_Group_SINK_
*P79 BGA_RXDATA5-_Group_SINK_
*P80 BGA_RXDATA6+_Group_SINK_
*P81 BGA_RXDATA6-_Group_SINK_
*P82 BGA_RXDATA7+_Group_SINK_
*P83 BGA_RXDATA7-_Group_SINK_
*P84 BGA_TXDATA0+_Group_SINK_
*P85 BGA_TXDATA0-_Group_SINK_
*P86 BGA_TXDATA1+_Group_SINK_
*P87 BGA_TXDATA1-_Group_SINK_
*P88 BGA_TXDATA2+_Group_SINK_
*P89 BGA_TXDATA2-_Group_SINK_
*P90 BGA_TXDATA3+_Group_SINK_
*P91 BGA_TXDATA3-_Group_SINK_
*P92 BGA_TXDATA4+_Group_SINK_
*P93 BGA_TXDATA4-_Group_SINK_
*P94 BGA_TXDATA5+_Group_SINK_
*P95 BGA_TXDATA5-_Group_SINK_
*P96 BGA_TXDATA6+_Group_SINK_
*P97 BGA_TXDATA6-_Group_SINK_
*P98 BGA_TXDATA7+_Group_SINK_
*P99 BGA_TXDATA7-_Group_SINK_
*P68 BGA_VSS_Group_SINK_
*P34 FCHIP_RXDATA0+_Group
*P35 FCHIP_RXDATA0-_Group
*P36 FCHIP_RXDATA1+_Group
*P37 FCHIP_RXDATA1-_Group
*P38 FCHIP_RXDATA2+_Group
*P39 FCHIP_RXDATA2-_Group
*P40 FCHIP_RXDATA3+_Group
*P41 FCHIP_RXDATA3-_Group
*P42 FCHIP_RXDATA4+_Group
*P43 FCHIP_RXDATA4-_Group
*P44 FCHIP_RXDATA5+_Group
*P45 FCHIP_RXDATA5-_Group
*P46 FCHIP_RXDATA6+_Group
*P47 FCHIP_RXDATA6-_Group
*P48 FCHIP_RXDATA7+_Group
*P49 FCHIP_RXDATA7-_Group
*P50 FCHIP_TXDATA0+_Group
*P51 FCHIP_TXDATA0-_Group
*P52 FCHIP_TXDATA1+_Group
*P53 FCHIP_TXDATA1-_Group
*P54 FCHIP_TXDATA2+_Group
*P55 FCHIP_TXDATA2-_Group
*P56 FCHIP_TXDATA3+_Group
*P57 FCHIP_TXDATA3-_Group
*P58 FCHIP_TXDATA4+_Group
*P59 FCHIP_TXDATA4-_Group
*P60 FCHIP_TXDATA5+_Group
*P61 FCHIP_TXDATA5-_Group
*P62 FCHIP_TXDATA6+_Group
*P63 FCHIP_TXDATA6-_Group
*P64 FCHIP_TXDATA7+_Group
*P65 FCHIP_TXDATA7-_Group
*P66 FCHIP_VSS_Group
*N1 RXDATA0+
*N2 RXDATA0-
*N3 RXDATA1+
*N4 RXDATA1-
*N5 RXDATA2+
*N6 RXDATA2-
*N7 RXDATA3+
*N8 RXDATA3-
*N9 RXDATA4+
*N10 RXDATA4-
*N11 RXDATA5+
*N12 RXDATA5-
*N13 RXDATA6+
*N14 RXDATA6-
*N15 RXDATA7+
*N16 RXDATA7-
*N17 TXDATA0+
*N18 TXDATA0-
*N19 TXDATA1+
*N20 TXDATA1-
*N21 TXDATA2+
*N22 TXDATA2-
*N23 TXDATA3+
*N24 TXDATA3-
*N25 TXDATA4+
*N26 TXDATA4-
*N27 TXDATA5+
*N28 TXDATA5-
*N29 TXDATA6+
*N30 TXDATA6-
*N31 TXDATA7+
*N32 TXDATA7-
*N33 VSS

*PORTS
*P34 O
*P35 O
*P36 O
*P37 O
*P38 O
*P39 O
*P40 O
*P41 O
*P42 O
*P43 O
*P44 O
*P45 O
*P46 O
*P47 O
*P48 O
*P49 O
*P50 O
*P51 O
*P52 O
*P53 O
*P54 O
*P55 O
*P56 O
*P57 O
*P58 O
*P59 O
*P60 O
*P61 O
*P62 O
*P63 O
*P64 O
*P65 O
*P66 O
*P67 I
*P68 I
*P69 I
*P70 I
*P71 I
*P72 I
*P73 I
*P74 I
*P75 I
*P76 I
*P77 I
*P78 I
*P79 I
*P80 I
*P81 I
*P82 I
*P83 I
*P84 I
*P85 I
*P86 I
*P87 I
*P88 I
*P89 I
*P90 I
*P91 I
*P92 I
*P93 I
*P94 I
*P95 I
*P96 I
*P97 I
*P98 I
*P99 I
*D_NET *N1 4.245828e-01
*CONN
*P *P34 O
*P *P67 I
*CAP
1 *P34 3.443074e-01
2 *P34 *P35 7.943466e-02
3 *P34 *P36 9.151865e-05
4 *P34 *P37 7.203267e-04
5 *P34 *P38 1.307248e-06
6 *P34 *P39 2.910317e-05
7 *P34 *P40 6.472047e-08
8 *P34 *P41 8.096630e-08
9 *P34 *P42 6.141825e-08
10 *P34 *P43 7.601717e-08
11 *P34 *P44 7.003276e-08
12 *P34 *P45 5.558149e-08
13 *P34 *P46 4.965448e-08
14 *P34 *P47 5.082207e-08
15 *P34 *P48 5.473336e-08
16 *P34 *P49 5.271276e-08
17 *P34 *P50 3.243604e-08
18 *P34 *P51 6.326319e-08
19 *P34 *P52 5.447655e-08
20 *P34 *P53 6.280633e-08
21 *P34 *P54 6.077728e-08
22 *P34 *P55 5.657707e-08
23 *P34 *P56 5.491169e-08
24 *P34 *P57 5.240107e-08
25 *P34 *P58 5.541906e-08
26 *P34 *P59 5.536208e-08
27 *P34 *P60 7.090404e-08
28 *P34 *P61 6.487966e-08
29 *P34 *P62 4.728311e-08
30 *P34 *P63 5.058717e-08
31 *P34 *P64 5.168912e-08
32 *P34 *P65 5.439221e-08
*RES
1 *P34 *P67 3.770891e-02
*END
*D_NET *N2 4.359952e-01
*CONN
*P *P35 O
*P *P69 I
*CAP
1 *P35 3.542075e-01
2 *P35 *P34 7.943466e-02
3 *P35 *P36 5.433943e-04
4 *P35 *P37 1.806042e-03
5 *P35 *P38 2.563657e-06
6 *P35 *P39 3.092341e-06
7 *P35 *P40 1.608714e-07
8 *P35 *P41 2.863602e-07
9 *P35 *P42 9.967124e-08
10 *P35 *P43 2.205754e-07
11 *P35 *P44 1.441102e-07
12 *P35 *P45 8.083452e-08
13 *P35 *P46 5.171039e-08
14 *P35 *P47 5.223821e-08
15 *P35 *P48 5.279309e-08
16 *P35 *P49 5.264525e-08
17 *P35 *P50 7.081504e-08
18 *P35 *P51 5.865864e-08
19 *P35 *P52 5.735768e-08
20 *P35 *P53 6.222354e-08
21 *P35 *P54 5.119119e-08
22 *P35 *P55 5.231503e-08
23 *P35 *P56 5.620646e-08
24 *P35 *P57 5.841278e-08
25 *P35 *P58 5.181561e-08
26 *P35 *P59 5.882195e-08
27 *P35 *P60 7.182841e-08
28 *P35 *P61 6.873279e-08
29 *P35 *P62 5.589876e-08
30 *P35 *P63 4.499668e-08
31 *P35 *P64 4.558524e-08
32 *P35 *P65 5.075735e-08
*RES
1 *P35 *P69 4.001462e-02
*END
*D_NET *N3 4.536448e-01
*CONN
*P *P36 O
*P *P70 I
*CAP
1 *P36 3.612500e-01
2 *P36 *P34 9.151865e-05
3 *P36 *P35 5.433943e-04
4 *P36 *P37 9.043920e-02
5 *P36 *P38 3.904366e-04
6 *P36 *P39 9.334432e-04
7 *P36 *P40 3.362783e-07
8 *P36 *P41 6.447694e-07
9 *P36 *P42 1.646256e-07
10 *P36 *P43 4.577742e-07
11 *P36 *P44 2.529472e-07
12 *P36 *P45 9.454207e-08
13 *P36 *P46 6.085621e-08
14 *P36 *P47 6.323639e-08
15 *P36 *P48 6.056859e-08
16 *P36 *P49 5.784062e-08
17 *P36 *P50 5.991298e-08
18 *P36 *P51 5.774947e-08
19 *P36 *P52 7.068082e-08
20 *P36 *P53 6.601055e-08
21 *P36 *P54 6.565134e-08
22 *P36 *P55 6.286094e-08
23 *P36 *P56 6.020299e-08
24 *P36 *P57 5.857163e-08
25 *P36 *P58 6.504434e-08
26 *P36 *P59 6.183977e-08
27 *P36 *P60 7.700384e-08
28 *P36 *P61 7.329991e-08
29 *P36 *P62 5.607202e-08
30 *P36 *P63 5.100490e-08
31 *P36 *P64 5.528295e-08
32 *P36 *P65 5.532874e-08
*RES
1 *P36 *P70 4.219923e-02
*END
*D_NET *N4 4.197434e-01
*CONN
*P *P37 O
*P *P71 I
*CAP
1 *P37 3.258173e-01
2 *P37 *P34 7.203267e-04
3 *P37 *P35 1.806042e-03
4 *P37 *P36 9.043920e-02
5 *P37 *P38 2.191416e-04
6 *P37 *P39 7.435891e-04
7 *P37 *P40 1.900245e-07
8 *P37 *P41 3.497844e-07
9 *P37 *P42 1.073980e-07
10 *P37 *P43 2.564376e-07
11 *P37 *P44 1.604355e-07
12 *P37 *P45 7.643936e-08
13 *P37 *P46 5.156052e-08
14 *P37 *P47 5.286533e-08
15 *P37 *P48 5.489278e-08
16 *P37 *P49 5.015831e-08
17 *P37 *P50 5.692469e-08
18 *P37 *P51 4.877495e-08
19 *P37 *P52 5.401869e-08
20 *P37 *P53 5.741309e-08
21 *P37 *P54 5.371027e-08
22 *P37 *P55 5.648776e-08
23 *P37 *P56 5.508945e-08
24 *P37 *P57 4.810098e-08
25 *P37 *P58 5.262871e-08
26 *P37 *P59 5.479017e-08
27 *P37 *P60 6.785950e-08
28 *P37 *P61 6.337624e-08
29 *P37 *P62 5.342128e-08
30 *P37 *P63 4.706248e-08
31 *P37 *P64 4.910010e-08
32 *P37 *P65 5.049429e-08
*RES
1 *P37 *P71 4.022461e-02
*END
*D_NET *N5 4.097680e-01
*CONN
*P *P38 O
*P *P72 I
*CAP
1 *P38 3.255987e-01
2 *P38 *P34 1.307248e-06
3 *P38 *P35 2.563657e-06
4 *P38 *P36 3.904366e-04
5 *P38 *P37 2.191416e-04
6 *P38 *P39 8.227007e-02
7 *P38 *P40 4.278906e-04
8 *P38 *P41 7.010999e-04
9 *P38 *P42 4.230211e-05
10 *P38 *P43 1.039900e-04
11 *P38 *P44 6.366065e-06
12 *P38 *P45 5.252500e-06
13 *P38 *P46 6.056370e-08
14 *P38 *P47 6.311896e-08
15 *P38 *P48 5.950157e-08
16 *P38 *P49 5.324959e-08
17 *P38 *P50 5.850847e-08
18 *P38 *P51 4.940347e-08
19 *P38 *P52 5.841356e-08
20 *P38 *P53 5.872879e-08
21 *P38 *P54 5.638025e-08
22 *P38 *P55 5.160841e-08
23 *P38 *P56 5.298750e-08
24 *P38 *P57 4.847506e-08
25 *P38 *P58 5.207825e-08
26 *P38 *P59 5.450390e-08
27 *P38 *P60 6.793425e-08
28 *P38 *P61 6.434537e-08
29 *P38 *P62 4.850779e-08
30 *P38 *P63 4.331166e-08
31 *P38 *P64 4.879636e-08
32 *P38 *P65 4.947574e-08
*RES
1 *P38 *P72 3.590737e-02
*END
*D_NET *N6 3.879357e-01
*CONN
*P *P39 O
*P *P73 I
*CAP
1 *P39 3.030991e-01
2 *P39 *P34 2.910317e-05
3 *P39 *P35 3.092341e-06
4 *P39 *P36 9.334432e-04
5 *P39 *P37 7.435891e-04
6 *P39 *P38 8.227007e-02
7 *P39 *P40 2.783329e-04
8 *P39 *P41 4.529756e-04
9 *P39 *P42 3.774820e-05
10 *P39 *P43 7.632165e-05
11 *P39 *P44 7.066050e-06
12 *P39 *P45 5.882899e-06
13 *P39 *P46 5.088040e-08
14 *P39 *P47 5.209311e-08
15 *P39 *P48 5.246553e-08
16 *P39 *P49 4.817658e-08
17 *P39 *P50 5.259710e-08
18 *P39 *P51 4.578996e-08
19 *P39 *P52 5.535066e-08
20 *P39 *P53 5.420165e-08
21 *P39 *P54 5.475426e-08
22 *P39 *P55 5.396016e-08
23 *P39 *P56 5.346126e-08
24 *P39 *P57 4.442435e-08
25 *P39 *P58 5.054044e-08
26 *P39 *P59 5.278995e-08
27 *P39 *P60 6.435966e-08
28 *P39 *P61 6.085696e-08
29 *P39 *P62 5.052695e-08
30 *P39 *P63 4.366494e-08
31 *P39 *P64 4.717311e-08
32 *P39 *P65 4.719535e-08
*RES
1 *P39 *P73 3.662762e-02
*END
*D_NET *N7 3.709538e-01
*CONN
*P *P40 O
*P *P74 I
*CAP
1 *P40 2.837561e-01
2 *P40 *P34 6.472047e-08
3 *P40 *P35 1.608714e-07
4 *P40 *P36 3.362783e-07
5 *P40 *P37 1.900245e-07
6 *P40 *P38 4.278906e-04
7 *P40 *P39 2.783329e-04
8 *P40 *P41 7.323332e-02
9 *P40 *P42 2.627505e-03
10 *P40 *P43 1.046240e-02
11 *P40 *P44 1.034386e-04
12 *P40 *P45 6.660427e-05
13 *P40 *P46 5.622706e-08
14 *P40 *P47 7.797924e-08
15 *P40 *P48 7.202060e-08
16 *P40 *P49 4.909710e-08
17 *P40 *P50 4.846036e-08
18 *P40 *P51 4.916621e-08
19 *P40 *P52 5.046441e-08
20 *P40 *P53 5.094044e-08
21 *P40 *P54 5.363142e-08
22 *P40 *P55 4.831520e-08
23 *P40 *P56 4.554212e-08
24 *P40 *P57 4.247536e-08
25 *P40 *P58 5.000750e-08
26 *P40 *P59 4.669240e-08
27 *P40 *P60 5.996732e-08
28 *P40 *P61 5.575545e-08
29 *P40 *P62 4.648586e-08
30 *P40 *P63 3.998240e-08
31 *P40 *P64 4.394136e-08
32 *P40 *P65 4.398896e-08
*RES
1 *P40 *P74 3.275829e-02
*END
*D_NET *N8 3.721121e-01
*CONN
*P *P41 O
*P *P75 I
*CAP
1 *P41 2.936499e-01
2 *P41 *P34 8.096630e-08
3 *P41 *P35 2.863602e-07
4 *P41 *P36 6.447694e-07
5 *P41 *P37 3.497844e-07
6 *P41 *P38 7.010999e-04
7 *P41 *P39 4.529756e-04
8 *P41 *P40 7.323332e-02
9 *P41 *P42 1.111911e-03
10 *P41 *P43 2.854149e-03
11 *P41 *P44 6.537155e-05
12 *P41 *P45 4.568659e-05
13 *P41 *P46 4.633812e-08
14 *P41 *P47 5.021592e-08
15 *P41 *P48 5.132156e-08
16 *P41 *P49 4.669837e-08
17 *P41 *P50 5.142046e-08
18 *P41 *P51 4.666522e-08
19 *P41 *P52 5.255622e-08
20 *P41 *P53 5.300285e-08
21 *P41 *P54 5.117012e-08
22 *P41 *P55 4.924094e-08
23 *P41 *P56 5.000831e-08
24 *P41 *P57 4.294724e-08
25 *P41 *P58 4.811754e-08
26 *P41 *P59 4.913321e-08
27 *P41 *P60 6.150852e-08
28 *P41 *P61 5.778811e-08
29 *P41 *P62 3.920398e-08
30 *P41 *P63 4.395879e-08
31 *P41 *P64 4.425933e-08
32 *P41 *P65 4.511532e-08
*RES
1 *P41 *P75 3.326557e-02
*END
*D_NET *N9 4.235435e-01
*CONN
*P *P42 O
*P *P76 I
*CAP
1 *P42 3.282187e-01
2 *P42 *P34 6.141825e-08
3 *P42 *P35 9.967124e-08
4 *P42 *P36 1.646256e-07
5 *P42 *P37 1.073980e-07
6 *P42 *P38 4.230211e-05
7 *P42 *P39 3.774820e-05
8 *P42 *P40 2.627505e-03
9 *P42 *P41 1.111911e-03
10 *P42 *P43 8.932430e-02
11 *P42 *P44 1.429374e-03
12 *P42 *P45 7.538901e-04
13 *P42 *P46 3.801485e-07
14 *P42 *P47 2.918294e-07
15 *P42 *P48 1.786540e-07
16 *P42 *P49 1.058873e-07
17 *P42 *P50 5.823495e-08
18 *P42 *P51 5.453070e-08
19 *P42 *P52 5.877365e-08
20 *P42 *P53 5.919577e-08
21 *P42 *P54 5.786458e-08
22 *P42 *P55 5.539337e-08
23 *P42 *P56 5.391538e-08
24 *P42 *P57 5.009612e-08
25 *P42 *P58 5.511830e-08
26 *P42 *P59 5.456898e-08
27 *P42 *P60 6.924675e-08
28 *P42 *P61 6.455371e-08
29 *P42 *P62 4.911160e-08
30 *P42 *P63 4.849578e-08
31 *P42 *P64 4.999141e-08
32 *P42 *P65 5.090457e-08
*RES
1 *P42 *P76 4.033628e-02
*END
*D_NET *N10 4.246153e-01
*CONN
*P *P43 O
*P *P77 I
*CAP
1 *P43 3.207587e-01
2 *P43 *P34 7.601717e-08
3 *P43 *P35 2.205754e-07
4 *P43 *P36 4.577742e-07
5 *P43 *P37 2.564376e-07
6 *P43 *P38 1.039900e-04
7 *P43 *P39 7.632165e-05
8 *P43 *P40 1.046240e-02
9 *P43 *P41 2.854149e-03
10 *P43 *P42 8.932430e-02
11 *P43 *P44 6.610271e-04
12 *P43 *P45 3.768922e-04
13 *P43 *P46 2.449223e-07
14 *P43 *P47 1.966186e-07
15 *P43 *P48 1.229442e-07
16 *P43 *P49 8.128949e-08
17 *P43 *P50 5.633848e-08
18 *P43 *P51 5.283698e-08
19 *P43 *P52 5.568091e-08
20 *P43 *P53 5.774540e-08
21 *P43 *P54 5.497973e-08
22 *P43 *P55 5.748830e-08
23 *P43 *P56 5.241750e-08
24 *P43 *P57 4.927722e-08
25 *P43 *P58 5.408118e-08
26 *P43 *P59 5.307387e-08
27 *P43 *P60 6.850703e-08
28 *P43 *P61 6.255318e-08
29 *P43 *P62 4.604790e-08
30 *P43 *P63 4.846060e-08
31 *P43 *P64 4.931378e-08
32 *P43 *P65 4.983617e-08
*RES
1 *P43 *P77 3.978307e-02
*END
*D_NET *N11 5.216906e-01
*CONN
*P *P44 O
*P *P78 I
*CAP
1 *P44 4.037626e-01
2 *P44 *P34 7.003276e-08
3 *P44 *P35 1.441102e-07
4 *P44 *P36 2.529472e-07
5 *P44 *P37 1.604355e-07
6 *P44 *P38 6.366065e-06
7 *P44 *P39 7.066050e-06
8 *P44 *P40 1.034386e-04
9 *P44 *P41 6.537155e-05
10 *P44 *P42 1.429374e-03
11 *P44 *P43 6.610271e-04
12 *P44 *P45 1.156590e-01
13 *P44 *P46 4.086136e-07
14 *P44 *P47 7.907616e-07
15 *P44 *P48 4.431046e-07
16 *P44 *P49 2.121858e-07
17 *P44 *P50 7.342099e-08
18 *P44 *P51 6.699003e-08
19 *P44 *P52 7.212129e-08
20 *P44 *P53 7.556691e-08
21 *P44 *P54 7.340394e-08
22 *P44 *P55 6.959054e-08
23 *P44 *P56 6.651674e-08
24 *P44 *P57 6.194633e-08
25 *P44 *P58 6.739920e-08
26 *P44 *P59 6.768826e-08
27 *P44 *P60 8.624036e-08
28 *P44 *P61 7.931582e-08
29 *P44 *P62 5.998613e-08
30 *P44 *P63 5.979121e-08
31 *P44 *P64 6.116158e-08
32 *P44 *P65 6.467108e-08
*RES
1 *P44 *P78 5.098034e-02
*END
*D_NET *N12 5.202834e-01
*CONN
*P *P45 O
*P *P79 I
*CAP
1 *P45 4.033747e-01
2 *P45 *P34 5.558149e-08
3 *P45 *P35 8.083452e-08
4 *P45 *P36 9.454207e-08
5 *P45 *P37 7.643936e-08
6 *P45 *P38 5.252500e-06
7 *P45 *P39 5.882899e-06
8 *P45 *P40 6.660427e-05
9 *P45 *P41 4.568659e-05
10 *P45 *P42 7.538901e-04
11 *P45 *P43 3.768922e-04
12 *P45 *P44 1.156590e-01
13 *P45 *P46 7.826934e-07
14 *P45 *P47 1.229025e-06
15 *P45 *P48 7.399413e-07
16 *P45 *P49 3.742128e-07
17 *P45 *P50 6.734678e-08
18 *P45 *P51 6.141715e-08
19 *P45 *P52 6.662404e-08
20 *P45 *P53 6.950186e-08
21 *P45 *P54 6.782673e-08
22 *P45 *P55 6.555883e-08
23 *P45 *P56 6.275167e-08
24 *P45 *P57 5.783676e-08
25 *P45 *P58 6.185564e-08
26 *P45 *P59 6.393854e-08
27 *P45 *P60 7.991833e-08
28 *P45 *P61 7.564847e-08
29 *P45 *P62 5.613251e-08
30 *P45 *P63 5.607051e-08
31 *P45 *P64 5.699686e-08
32 *P45 *P65 5.771321e-08
*RES
1 *P45 *P79 5.065322e-02
*END
*D_NET *N13 2.793960e-01
*CONN
*P *P46 O
*P *P80 I
*CAP
1 *P46 2.794007e-01
2 *P46 *P34 4.965448e-08
3 *P46 *P35 5.171039e-08
4 *P46 *P36 6.085621e-08
5 *P46 *P37 5.156052e-08
6 *P46 *P38 6.056370e-08
7 *P46 *P39 5.088040e-08
8 *P46 *P40 5.622706e-08
9 *P46 *P41 4.633812e-08
10 *P46 *P42 3.801485e-07
11 *P46 *P43 2.449223e-07
12 *P46 *P44 4.086136e-07
13 *P46 *P45 7.826934e-07
14 *P46 *P47 1.044890e-06
15 *P46 *P48 3.605707e-07
16 *P46 *P49 2.930166e-07
17 *P46 *P50 4.957354e-08
18 *P46 *P51 4.543439e-08
19 *P46 *P52 4.899314e-08
20 *P46 *P53 5.002444e-08
21 *P46 *P54 4.892578e-08
22 *P46 *P55 4.776746e-08
23 *P46 *P56 4.540246e-08
24 *P46 *P57 4.204431e-08
25 *P46 *P58 4.571232e-08
26 *P46 *P59 4.609281e-08
27 *P46 *P60 5.855391e-08
28 *P46 *P61 5.460321e-08
29 *P46 *P62 4.063406e-08
30 *P46 *P63 4.087531e-08
31 *P46 *P64 4.153076e-08
32 *P46 *P65 4.316360e-08
*RES
1 *P46 *P80 3.001861e-02
*END
*D_NET *N14 2.829794e-01
*CONN
*P *P47 O
*P *P81 I
*CAP
1 *P47 2.829852e-01
2 *P47 *P34 5.082207e-08
3 *P47 *P35 5.223821e-08
4 *P47 *P36 6.323639e-08
5 *P47 *P37 5.286533e-08
6 *P47 *P38 6.311896e-08
7 *P47 *P39 5.209311e-08
8 *P47 *P40 7.797924e-08
9 *P47 *P41 5.021592e-08
10 *P47 *P42 2.918294e-07
11 *P47 *P43 1.966186e-07
12 *P47 *P44 7.907616e-07
13 *P47 *P45 1.229025e-06
14 *P47 *P46 1.044890e-06
15 *P47 *P48 6.073473e-07
16 *P47 *P49 4.088104e-07
17 *P47 *P50 5.030545e-08
18 *P47 *P51 4.610643e-08
19 *P47 *P52 4.983324e-08
20 *P47 *P53 5.066769e-08
21 *P47 *P54 4.968160e-08
22 *P47 *P55 4.864513e-08
23 *P47 *P56 4.612796e-08
24 *P47 *P57 4.287720e-08
25 *P47 *P58 4.639396e-08
26 *P47 *P59 4.678069e-08
27 *P47 *P60 5.932115e-08
28 *P47 *P61 5.560744e-08
29 *P47 *P62 4.135921e-08
30 *P47 *P63 4.152555e-08
31 *P47 *P64 4.228639e-08
32 *P47 *P65 4.359656e-08
*RES
1 *P47 *P81 3.103480e-02
*END
*D_NET *N15 3.020346e-01
*CONN
*P *P48 O
*P *P82 I
*CAP
1 *P48 3.020387e-01
2 *P48 *P34 5.473336e-08
3 *P48 *P35 5.279309e-08
4 *P48 *P36 6.056859e-08
5 *P48 *P37 5.489278e-08
6 *P48 *P38 5.950157e-08
7 *P48 *P39 5.246553e-08
8 *P48 *P40 7.202060e-08
9 *P48 *P41 5.132156e-08
10 *P48 *P42 1.786540e-07
11 *P48 *P43 1.229442e-07
12 *P48 *P44 4.431046e-07
13 *P48 *P45 7.399413e-07
14 *P48 *P46 3.605707e-07
15 *P48 *P47 6.073473e-07
16 *P48 *P49 3.346198e-07
17 *P48 *P50 5.576349e-08
18 *P48 *P51 4.943325e-08
19 *P48 *P52 5.680490e-08
20 *P48 *P53 5.408854e-08
21 *P48 *P54 5.273658e-08
22 *P48 *P55 5.285525e-08
23 *P48 *P56 4.940628e-08
24 *P48 *P57 4.580915e-08
25 *P48 *P58 5.027193e-08
26 *P48 *P59 4.957795e-08
27 *P48 *P60 6.502683e-08
28 *P48 *P61 5.874914e-08
29 *P48 *P62 4.746551e-08
30 *P48 *P63 4.220144e-08
31 *P48 *P64 4.681600e-08
32 *P48 *P65 5.140747e-08
*RES
1 *P48 *P82 3.566011e-02
*END
*D_NET *N16 2.922347e-01
*CONN
*P *P49 O
*P *P83 I
*CAP
1 *P49 2.922377e-01
2 *P49 *P34 5.271276e-08
3 *P49 *P35 5.264525e-08
4 *P49 *P36 5.784062e-08
5 *P49 *P37 5.015831e-08
6 *P49 *P38 5.324959e-08
7 *P49 *P39 4.817658e-08
8 *P49 *P40 4.909710e-08
9 *P49 *P41 4.669837e-08
10 *P49 *P42 1.058873e-07
11 *P49 *P43 8.128949e-08
12 *P49 *P44 2.121858e-07
13 *P49 *P45 3.742128e-07
14 *P49 *P46 2.930166e-07
15 *P49 *P47 4.088104e-07
16 *P49 *P48 3.346198e-07
17 *P49 *P50 5.134642e-08
18 *P49 *P51 4.791375e-08
19 *P49 *P52 5.041453e-08
20 *P49 *P53 5.270494e-08
21 *P49 *P54 5.190691e-08
22 *P49 *P55 4.950555e-08
23 *P49 *P56 4.811714e-08
24 *P49 *P57 4.507647e-08
25 *P49 *P58 4.808995e-08
26 *P49 *P59 4.843927e-08
27 *P49 *P60 6.052163e-08
28 *P49 *P61 5.800907e-08
29 *P49 *P62 4.257044e-08
30 *P49 *P63 4.398052e-08
31 *P49 *P64 4.306822e-08
32 *P49 *P65 4.412654e-08
*RES
1 *P49 *P83 3.317870e-02
*END
*D_NET *N17 4.222933e-01
*CONN
*P *P50 O
*P *P84 I
*CAP
1 *P50 3.428098e-01
2 *P50 *P34 3.243604e-08
3 *P50 *P35 7.081504e-08
4 *P50 *P36 5.991298e-08
5 *P50 *P37 5.692469e-08
6 *P50 *P38 5.850847e-08
7 *P50 *P39 5.259710e-08
8 *P50 *P40 4.846036e-08
9 *P50 *P41 5.142046e-08
10 *P50 *P42 5.823495e-08
11 *P50 *P43 5.633848e-08
12 *P50 *P44 7.342099e-08
13 *P50 *P45 6.734678e-08
14 *P50 *P46 4.957354e-08
15 *P50 *P47 5.030545e-08
16 *P50 *P48 5.576349e-08
17 *P50 *P49 5.134642e-08
18 *P50 *P51 7.914042e-02
19 *P50 *P52 2.895033e-04
20 *P50 *P53 5.371526e-05
21 *P50 *P54 9.116262e-07
22 *P50 *P55 4.759955e-07
23 *P50 *P56 8.182321e-08
24 *P50 *P57 7.041022e-08
25 *P50 *P58 7.763194e-08
26 *P50 *P59 6.698131e-08
27 *P50 *P60 7.287354e-08
28 *P50 *P61 5.827932e-08
29 *P50 *P62 4.963728e-08
30 *P50 *P63 5.194067e-08
31 *P50 *P64 5.165690e-08
32 *P50 *P65 5.436115e-08
*RES
1 *P50 *P84 3.746788e-02
*END
*D_NET *N18 4.376961e-01
*CONN
*P *P51 O
*P *P85 I
*CAP
1 *P51 3.575873e-01
2 *P51 *P34 6.326319e-08
3 *P51 *P35 5.865864e-08
4 *P51 *P36 5.774947e-08
5 *P51 *P37 4.877495e-08
6 *P51 *P38 4.940347e-08
7 *P51 *P39 4.578996e-08
8 *P51 *P40 4.916621e-08
9 *P51 *P41 4.666522e-08
10 *P51 *P42 5.453070e-08
11 *P51 *P43 5.283698e-08
12 *P51 *P44 6.699003e-08
13 *P51 *P45 6.141715e-08
14 *P51 *P46 4.543439e-08
15 *P51 *P47 4.610643e-08
16 *P51 *P48 4.943325e-08
17 *P51 *P49 4.791375e-08
18 *P51 *P50 7.914042e-02
19 *P51 *P52 7.243260e-04
20 *P51 *P53 2.461838e-04
21 *P51 *P54 2.829806e-07
22 *P51 *P55 2.044231e-07
23 *P51 *P56 2.358594e-07
24 *P51 *P57 1.538939e-07
25 *P51 *P58 1.852438e-07
26 *P51 *P59 1.193213e-07
27 *P51 *P60 1.899786e-07
28 *P51 *P61 7.305579e-08
29 *P51 *P62 4.878852e-08
30 *P51 *P63 4.394376e-08
31 *P51 *P64 4.910856e-08
32 *P51 *P65 5.128406e-08
*RES
1 *P51 *P85 3.972360e-02
*END
*D_NET *N19 4.452894e-01
*CONN
*P *P52 O
*P *P86 I
*CAP
1 *P52 3.525476e-01
2 *P52 *P34 5.447655e-08
3 *P52 *P35 5.735768e-08
4 *P52 *P36 7.068082e-08
5 *P52 *P37 5.401869e-08
6 *P52 *P38 5.841356e-08
7 *P52 *P39 5.535066e-08
8 *P52 *P40 5.046441e-08
9 *P52 *P41 5.255622e-08
10 *P52 *P42 5.877365e-08
11 *P52 *P43 5.568091e-08
12 *P52 *P44 7.212129e-08
13 *P52 *P45 6.662404e-08
14 *P52 *P46 4.899314e-08
15 *P52 *P47 4.983324e-08
16 *P52 *P48 5.680490e-08
17 *P52 *P49 5.041453e-08
18 *P52 *P50 2.895033e-04
19 *P52 *P51 7.243260e-04
20 *P52 *P53 9.096823e-02
21 *P52 *P54 4.834258e-04
22 *P52 *P55 2.512071e-04
23 *P52 *P56 6.426358e-06
24 *P52 *P57 1.547698e-05
25 *P52 *P58 2.971373e-06
26 *P52 *P59 1.585750e-07
27 *P52 *P60 2.400894e-07
28 *P52 *P61 1.709509e-06
29 *P52 *P62 6.747271e-08
30 *P52 *P63 4.390071e-08
31 *P52 *P64 5.100833e-08
32 *P52 *P65 5.739404e-08
*RES
1 *P52 *P86 4.067288e-02
*END
*D_NET *N20 4.538057e-01
*CONN
*P *P53 O
*P *P87 I
*CAP
1 *P53 3.608008e-01
2 *P53 *P34 6.280633e-08
3 *P53 *P35 6.222354e-08
4 *P53 *P36 6.601055e-08
5 *P53 *P37 5.741309e-08
6 *P53 *P38 5.872879e-08
7 *P53 *P39 5.420165e-08
8 *P53 *P40 5.094044e-08
9 *P53 *P41 5.300285e-08
10 *P53 *P42 5.919577e-08
11 *P53 *P43 5.774540e-08
12 *P53 *P44 7.556691e-08
13 *P53 *P45 6.950186e-08
14 *P53 *P46 5.002444e-08
15 *P53 *P47 5.066769e-08
16 *P53 *P48 5.408854e-08
17 *P53 *P49 5.270494e-08
18 *P53 *P50 5.371526e-05
19 *P53 *P51 2.461838e-04
20 *P53 *P52 9.096823e-02
21 *P53 *P54 1.155749e-03
22 *P53 *P55 5.367385e-04
23 *P53 *P56 1.215671e-05
24 *P53 *P57 2.760915e-05
25 *P53 *P58 4.232759e-06
26 *P53 *P59 2.225475e-07
27 *P53 *P60 3.583241e-07
28 *P53 *P61 1.999220e-06
29 *P53 *P62 6.113643e-08
30 *P53 *P63 5.726279e-08
31 *P53 *P64 5.304199e-08
32 *P53 *P65 5.989160e-08
*RES
1 *P53 *P87 4.203842e-02
*END
*D_NET *N21 4.362708e-01
*CONN
*P *P54 O
*P *P88 I
*CAP
1 *P54 3.474564e-01
2 *P54 *P34 6.077728e-08
3 *P54 *P35 5.119119e-08
4 *P54 *P36 6.565134e-08
5 *P54 *P37 5.371027e-08
6 *P54 *P38 5.638025e-08
7 *P54 *P39 5.475426e-08
8 *P54 *P40 5.363142e-08
9 *P54 *P41 5.117012e-08
10 *P54 *P42 5.786458e-08
11 *P54 *P43 5.497973e-08
12 *P54 *P44 7.340394e-08
13 *P54 *P45 6.782673e-08
14 *P54 *P46 4.892578e-08
15 *P54 *P47 4.968160e-08
16 *P54 *P48 5.273658e-08
17 *P54 *P49 5.190691e-08
18 *P54 *P50 9.116262e-07
19 *P54 *P51 2.829806e-07
20 *P54 *P52 4.834258e-04
21 *P54 *P53 1.155749e-03
22 *P54 *P55 8.650563e-02
23 *P54 *P56 3.841886e-04
24 *P54 *P57 2.576630e-04
25 *P54 *P58 1.670499e-05
26 *P54 *P59 9.672728e-06
27 *P54 *P60 9.778718e-07
28 *P54 *P61 9.167355e-07
29 *P54 *P62 5.577660e-08
30 *P54 *P63 5.335621e-08
31 *P54 *P64 4.748708e-08
32 *P54 *P65 5.987221e-08
*RES
1 *P54 *P88 3.965275e-02
*END
*D_NET *N22 4.216092e-01
*CONN
*P *P55 O
*P *P89 I
*CAP
1 *P55 3.322836e-01
2 *P55 *P34 5.657707e-08
3 *P55 *P35 5.231503e-08
4 *P55 *P36 6.286094e-08
5 *P55 *P37 5.648776e-08
6 *P55 *P38 5.160841e-08
7 *P55 *P39 5.396016e-08
8 *P55 *P40 4.831520e-08
9 *P55 *P41 4.924094e-08
10 *P55 *P42 5.539337e-08
11 *P55 *P43 5.748830e-08
12 *P55 *P44 6.959054e-08
13 *P55 *P45 6.555883e-08
14 *P55 *P46 4.776746e-08
15 *P55 *P47 4.864513e-08
16 *P55 *P48 5.285525e-08
17 *P55 *P49 4.950555e-08
18 *P55 *P50 4.759955e-07
19 *P55 *P51 2.044231e-07
20 *P55 *P52 2.512071e-04
21 *P55 *P53 5.367385e-04
22 *P55 *P54 8.650563e-02
23 *P55 *P56 1.044025e-03
24 *P55 *P57 8.652175e-04
25 *P55 *P58 8.742579e-05
26 *P55 *P59 2.148988e-05
27 *P55 *P60 1.738605e-06
28 *P55 *P61 1.265560e-05
29 *P55 *P62 7.484496e-08
30 *P55 *P63 6.604759e-08
31 *P55 *P64 6.141783e-08
32 *P55 *P65 7.013576e-08
*RES
1 *P55 *P89 3.927664e-02
*END
*D_NET *N23 3.901751e-01
*CONN
*P *P56 O
*P *P90 I
*CAP
1 *P56 3.159320e-01
2 *P56 *P34 5.491169e-08
3 *P56 *P35 5.620646e-08
4 *P56 *P36 6.020299e-08
5 *P56 *P37 5.508945e-08
6 *P56 *P38 5.298750e-08
7 *P56 *P39 5.346126e-08
8 *P56 *P40 4.554212e-08
9 *P56 *P41 5.000831e-08
10 *P56 *P42 5.391538e-08
11 *P56 *P43 5.241750e-08
12 *P56 *P44 6.651674e-08
13 *P56 *P45 6.275167e-08
14 *P56 *P46 4.540246e-08
15 *P56 *P47 4.612796e-08
16 *P56 *P48 4.940628e-08
17 *P56 *P49 4.811714e-08
18 *P56 *P50 8.182321e-08
19 *P56 *P51 2.358594e-07
20 *P56 *P52 6.426358e-06
21 *P56 *P53 1.215671e-05
22 *P56 *P54 3.841886e-04
23 *P56 *P55 1.044025e-03
24 *P56 *P57 7.137031e-02
25 *P56 *P58 1.013956e-03
26 *P56 *P59 3.924730e-04
27 *P56 *P60 1.273786e-05
28 *P56 *P61 8.286760e-06
29 *P56 *P62 5.498898e-08
30 *P56 *P63 5.844708e-08
31 *P56 *P64 4.918882e-08
32 *P56 *P65 6.118324e-08
*RES
1 *P56 *P90 3.325824e-02
*END
*D_NET *N24 3.717678e-01
*CONN
*P *P57 O
*P *P91 I
*CAP
1 *P57 2.939750e-01
2 *P57 *P34 5.240107e-08
3 *P57 *P35 5.841278e-08
4 *P57 *P36 5.857163e-08
5 *P57 *P37 4.810098e-08
6 *P57 *P38 4.847506e-08
7 *P57 *P39 4.442435e-08
8 *P57 *P40 4.247536e-08
9 *P57 *P41 4.294724e-08
10 *P57 *P42 5.009612e-08
11 *P57 *P43 4.927722e-08
12 *P57 *P44 6.194633e-08
13 *P57 *P45 5.783676e-08
14 *P57 *P46 4.204431e-08
15 *P57 *P47 4.287720e-08
16 *P57 *P48 4.580915e-08
17 *P57 *P49 4.507647e-08
18 *P57 *P50 7.041022e-08
19 *P57 *P51 1.538939e-07
20 *P57 *P52 1.547698e-05
21 *P57 *P53 2.760915e-05
22 *P57 *P54 2.576630e-04
23 *P57 *P55 8.652175e-04
24 *P57 *P56 7.137031e-02
25 *P57 *P58 4.074434e-03
26 *P57 *P59 1.109177e-03
27 *P57 *P60 2.407469e-05
28 *P57 *P61 5.016169e-05
29 *P57 *P62 8.899869e-08
30 *P57 *P63 1.072832e-07
31 *P57 *P64 5.411918e-08
32 *P57 *P65 1.071999e-07
*RES
1 *P57 *P91 3.300170e-02
*END
*D_NET *N25 4.299263e-01
*CONN
*P *P58 O
*P *P92 I
*CAP
1 *P58 3.184911e-01
2 *P58 *P34 5.541906e-08
3 *P58 *P35 5.181561e-08
4 *P58 *P36 6.504434e-08
5 *P58 *P37 5.262871e-08
6 *P58 *P38 5.207825e-08
7 *P58 *P39 5.054044e-08
8 *P58 *P40 5.000750e-08
9 *P58 *P41 4.811754e-08
10 *P58 *P42 5.511830e-08
11 *P58 *P43 5.408118e-08
12 *P58 *P44 6.739920e-08
13 *P58 *P45 6.185564e-08
14 *P58 *P46 4.571232e-08
15 *P58 *P47 4.639396e-08
16 *P58 *P48 5.027193e-08
17 *P58 *P49 4.808995e-08
18 *P58 *P50 7.763194e-08
19 *P58 *P51 1.852438e-07
20 *P58 *P52 2.971373e-06
21 *P58 *P53 4.232759e-06
22 *P58 *P54 1.670499e-05
23 *P58 *P55 8.742579e-05
24 *P58 *P56 1.013956e-03
25 *P58 *P57 4.074434e-03
26 *P58 *P59 1.043034e-01
27 *P58 *P60 1.146335e-03
28 *P58 *P61 7.875149e-04
29 *P58 *P62 2.991829e-07
30 *P58 *P63 2.141610e-07
31 *P58 *P64 8.143345e-08
32 *P58 *P65 1.662981e-07
*RES
1 *P58 *P92 3.867945e-02
*END
*D_NET *N26 4.297260e-01
*CONN
*P *P59 O
*P *P93 I
*CAP
1 *P59 3.203372e-01
2 *P59 *P34 5.536208e-08
3 *P59 *P35 5.882195e-08
4 *P59 *P36 6.183977e-08
5 *P59 *P37 5.479017e-08
6 *P59 *P38 5.450390e-08
7 *P59 *P39 5.278995e-08
8 *P59 *P40 4.669240e-08
9 *P59 *P41 4.913321e-08
10 *P59 *P42 5.456898e-08
11 *P59 *P43 5.307387e-08
12 *P59 *P44 6.768826e-08
13 *P59 *P45 6.393854e-08
14 *P59 *P46 4.609281e-08
15 *P59 *P47 4.678069e-08
16 *P59 *P48 4.957795e-08
17 *P59 *P49 4.843927e-08
18 *P59 *P50 6.698131e-08
19 *P59 *P51 1.193213e-07
20 *P59 *P52 1.585750e-07
21 *P59 *P53 2.225475e-07
22 *P59 *P54 9.672728e-06
23 *P59 *P55 2.148988e-05
24 *P59 *P56 3.924730e-04
25 *P59 *P57 1.109177e-03
26 *P59 *P58 1.043034e-01
27 *P59 *P60 2.394525e-03
28 *P59 *P61 1.160607e-03
29 *P59 *P62 4.595354e-07
30 *P59 *P63 3.189391e-07
31 *P59 *P64 1.044521e-07
32 *P59 *P65 2.510743e-07
*RES
1 *P59 *P93 3.892028e-02
*END
*D_NET *N27 5.218673e-01
*CONN
*P *P60 O
*P *P94 I
*CAP
1 *P60 4.020015e-01
2 *P60 *P34 7.090404e-08
3 *P60 *P35 7.182841e-08
4 *P60 *P36 7.700384e-08
5 *P60 *P37 6.785950e-08
6 *P60 *P38 6.793425e-08
7 *P60 *P39 6.435966e-08
8 *P60 *P40 5.996732e-08
9 *P60 *P41 6.150852e-08
10 *P60 *P42 6.924675e-08
11 *P60 *P43 6.850703e-08
12 *P60 *P44 8.624036e-08
13 *P60 *P45 7.991833e-08
14 *P60 *P46 5.855391e-08
15 *P60 *P47 5.932115e-08
16 *P60 *P48 6.502683e-08
17 *P60 *P49 6.052163e-08
18 *P60 *P50 7.287354e-08
19 *P60 *P51 1.899786e-07
20 *P60 *P52 2.400894e-07
21 *P60 *P53 3.583241e-07
22 *P60 *P54 9.778718e-07
23 *P60 *P55 1.738605e-06
24 *P60 *P56 1.273786e-05
25 *P60 *P57 2.407469e-05
26 *P60 *P58 1.146335e-03
27 *P60 *P59 2.394525e-03
28 *P60 *P61 1.162894e-01
29 *P60 *P62 4.393757e-07
30 *P60 *P63 7.932210e-07
31 *P60 *P64 2.203218e-07
32 *P60 *P65 5.529545e-07
*RES
1 *P60 *P94 5.114009e-02
*END
*D_NET *N28 5.221274e-01
*CONN
*P *P61 O
*P *P95 I
*CAP
1 *P61 4.038187e-01
2 *P61 *P34 6.487966e-08
3 *P61 *P35 6.873279e-08
4 *P61 *P36 7.329991e-08
5 *P61 *P37 6.337624e-08
6 *P61 *P38 6.434537e-08
7 *P61 *P39 6.085696e-08
8 *P61 *P40 5.575545e-08
9 *P61 *P41 5.778811e-08
10 *P61 *P42 6.455371e-08
11 *P61 *P43 6.255318e-08
12 *P61 *P44 7.931582e-08
13 *P61 *P45 7.564847e-08
14 *P61 *P46 5.460321e-08
15 *P61 *P47 5.560744e-08
16 *P61 *P48 5.874914e-08
17 *P61 *P49 5.800907e-08
18 *P61 *P50 5.827932e-08
19 *P61 *P51 7.305579e-08
20 *P61 *P52 1.709509e-06
21 *P61 *P53 1.999220e-06
22 *P61 *P54 9.167355e-07
23 *P61 *P55 1.265560e-05
24 *P61 *P56 8.286760e-06
25 *P61 *P57 5.016169e-05
26 *P61 *P58 7.875149e-04
27 *P61 *P59 1.160607e-03
28 *P61 *P60 1.162894e-01
29 *P61 *P62 8.298549e-07
30 *P61 *P63 1.232862e-06
31 *P61 *P64 4.792752e-07
32 *P61 *P65 8.128548e-07
*RES
1 *P61 *P95 5.092169e-02
*END
*D_NET *N29 2.839535e-01
*CONN
*P *P62 O
*P *P96 I
*CAP
1 *P62 2.839589e-01
2 *P62 *P34 4.728311e-08
3 *P62 *P35 5.589876e-08
4 *P62 *P36 5.607202e-08
5 *P62 *P37 5.342128e-08
6 *P62 *P38 4.850779e-08
7 *P62 *P39 5.052695e-08
8 *P62 *P40 4.648586e-08
9 *P62 *P41 3.920398e-08
10 *P62 *P42 4.911160e-08
11 *P62 *P43 4.604790e-08
12 *P62 *P44 5.998613e-08
13 *P62 *P45 5.613251e-08
14 *P62 *P46 4.063406e-08
15 *P62 *P47 4.135921e-08
16 *P62 *P48 4.746551e-08
17 *P62 *P49 4.257044e-08
18 *P62 *P50 4.963728e-08
19 *P62 *P51 4.878852e-08
20 *P62 *P52 6.747271e-08
21 *P62 *P53 6.113643e-08
22 *P62 *P54 5.577660e-08
23 *P62 *P55 7.484496e-08
24 *P62 *P56 5.498898e-08
25 *P62 *P57 8.899869e-08
26 *P62 *P58 2.991829e-07
27 *P62 *P59 4.595354e-07
28 *P62 *P60 4.393757e-07
29 *P62 *P61 8.298549e-07
30 *P62 *P63 1.304357e-06
31 *P62 *P64 3.959102e-07
32 *P62 *P65 4.637228e-07
*RES
1 *P62 *P96 3.104464e-02
*END
*D_NET *N30 2.836222e-01
*CONN
*P *P63 O
*P *P97 I
*CAP
1 *P63 2.836285e-01
2 *P63 *P34 5.058717e-08
3 *P63 *P35 4.499668e-08
4 *P63 *P36 5.100490e-08
5 *P63 *P37 4.706248e-08
6 *P63 *P38 4.331166e-08
7 *P63 *P39 4.366494e-08
8 *P63 *P40 3.998240e-08
9 *P63 *P41 4.395879e-08
10 *P63 *P42 4.849578e-08
11 *P63 *P43 4.846060e-08
12 *P63 *P44 5.979121e-08
13 *P63 *P45 5.607051e-08
14 *P63 *P46 4.087531e-08
15 *P63 *P47 4.152555e-08
16 *P63 *P48 4.220144e-08
17 *P63 *P49 4.398052e-08
18 *P63 *P50 5.194067e-08
19 *P63 *P51 4.394376e-08
20 *P63 *P52 4.390071e-08
21 *P63 *P53 5.726279e-08
22 *P63 *P54 5.335621e-08
23 *P63 *P55 6.604759e-08
24 *P63 *P56 5.844708e-08
25 *P63 *P57 1.072832e-07