*SPEF IEEE 1481 - 1999
*VENDOR ANSYS
*PROGRAM "CPA"
*VERSION 2023 R2
*DESIGN_FLOW ""
*DIVIDER /
*DELIMITER :
*BUS_DELIMITER []
*T_UNIT 1 NS
*C_UNIT 1 PF
*R_UNIT 1 OHM
*L_UNIT 1 UH
*NAME_MAP
*P13 BGA_VDD_15_SINK_
*P14 BGA_VSS_SINK_
*P3 FCHIP_VDD_15_Group_0
*P4 FCHIP_VDD_15_Group_1
*P5 FCHIP_VDD_15_Group_2
*P6 FCHIP_VDD_15_Group_3
*P8 FCHIP_VSS_Group_0
*P9 FCHIP_VSS_Group_1
*P10 FCHIP_VSS_Group_2
*P11 FCHIP_VSS_Group_3
*P7 Group_COMP1_part_COMP1_VDD_15_1
*P12 Group_COMP1_part_COMP1_VSS_2
*N1 VDD_15
*N2 VSS

*PORTS
*P3 O
*P4 O
*P5 O
*P6 O
*P7 O
*P8 O
*P9 O
*P10 O
*P11 O
*P12 O
*P13 I
*P14 I
*D_NET *N1 2.989262e+00
*CONN
*P *P3 O
*P *P4 O
*P *P5 O
*P *P6 O
*P *P7 O
*P *P13 I
*CAP
1 *P3 *P8 1.195705e-01
2 *P3 *P9 1.195705e-01
3 *P3 *P10 1.195705e-01
4 *P3 *P11 1.195705e-01
5 *P3 *P12 1.195705e-01
6 *P4 *P8 1.195705e-01
7 *P4 *P9 1.195705e-01
8 *P4 *P10 1.195705e-01
9 *P4 *P11 1.195705e-01
10 *P4 *P12 1.195705e-01
11 *P5 *P8 1.195705e-01
12 *P5 *P9 1.195705e-01
13 *P5 *P10 1.195705e-01
14 *P5 *P11 1.195705e-01
15 *P5 *P12 1.195705e-01
16 *P6 *P8 1.195705e-01
17 *P6 *P9 1.195705e-01
18 *P6 *P10 1.195705e-01
19 *P6 *P11 1.195705e-01
20 *P6 *P12 1.195705e-01
21 *P7 *P8 1.195705e-01
22 *P7 *P9 1.195705e-01
23 *P7 *P10 1.195705e-01
24 *P7 *P11 1.195705e-01
25 *P7 *P12 1.195705e-01
*RES
1 *P3 *P13 1.198376e-02
2 *P3 *P4 1.383504e-02
3 *P3 *P5 3.131972e-04
4 *P3 *P6 4.187305e-02
5 *P3 *P7 1.383935e+02
6 *P4 *P13 2.258338e-02
7 *P4 *P5 4.253122e-02
8 *P4 *P6 3.158507e-04
9 *P4 *P7 2.412152e-02
10 *P5 *P13 1.203425e-02
11 *P5 *P6 1.287247e-01
12 *P5 *P7 4.254446e+02
13 *P6 *P13 2.258401e-02
14 *P6 *P7 2.411670e-02
15 *P7 *P13 1.025921e-03
*END
*D_NET *N2 2.989262e+00
*CONN
*P *P8 O
*P *P9 O
*P *P10 O
*P *P11 O
*P *P12 O
*P *P14 I
*CAP
1 *P8 *P3 1.195705e-01
2 *P8 *P4 1.195705e-01
3 *P8 *P5 1.195705e-01
4 *P8 *P6 1.195705e-01
5 *P8 *P7 1.195705e-01
6 *P9 *P3 1.195705e-01
7 *P9 *P4 1.195705e-01
8 *P9 *P5 1.195705e-01
9 *P9 *P6 1.195705e-01
10 *P9 *P7 1.195705e-01
11 *P10 *P3 1.195705e-01
12 *P10 *P4 1.195705e-01
13 *P10 *P5 1.195705e-01
14 *P10 *P6 1.195705e-01
15 *P10 *P7 1.195705e-01
16 *P11 *P3 1.195705e-01
17 *P11 *P4 1.195705e-01
18 *P11 *P5 1.195705e-01
19 *P11 *P6 1.195705e-01
20 *P11 *P7 1.195705e-01
21 *P12 *P3 1.195705e-01
22 *P12 *P4 1.195705e-01
23 *P12 *P5 1.195705e-01
24 *P12 *P6 1.195705e-01
25 *P12 *P7 1.195705e-01
*RES
1 *P8 *P14 1.775863e-04
2 *P8 *P9 1.407653e-04
3 *P8 *P10 1.539858e-03
4 *P8 *P11 6.024816e-03
5 *P8 *P12 2.288694e+00
6 *P9 *P14 1.916757e-04
7 *P9 *P10 5.901345e-03
8 *P9 *P11 1.720453e-03
9 *P9 *P12 2.110353e-01
10 *P10 *P14 1.819639e-04
11 *P10 *P11 1.449357e-04
12 *P10 *P12 3.248863e-01
13 *P11 *P14 2.100829e-04
14 *P11 *P12 2.526823e-02
15 *P12 *P14 6.254685e-03
*END
