*SPEF IEEE 1481 - 1999
*VENDOR ANSYS
*PROGRAM "CPA"
*VERSION 2023 R2
*DESIGN_FLOW ""
*DIVIDER /
*DELIMITER :
*BUS_DELIMITER []
*T_UNIT 1 NS
*C_UNIT 1 PF
*R_UNIT 1 OHM
*L_UNIT 1 UH
*NAME_MAP
*N1 GND
*P4 Group_602433-081_C2B2_GND_1
*P20 Group_602433-081_C2B2_V1P0_S0_2
*P5 Group_602433-081_C3B10_GND_1
*P21 Group_602433-081_C3B10_V1P0_S0_2
*P6 Group_A36096-108_C3L22_GND_1
*P22 Group_A36096-108_C3L22_V1P0_S0_2
*P7 Group_C83410-012_C3L15_GND_1
*P23 Group_C83410-012_C3L15_V1P0_S0_2
*P8 Group_C83410-012_C3L17_GND_1
*P24 Group_C83410-012_C3L17_V1P0_S0_2
*P9 Group_C83410-012_C3L18_GND_1
*P25 Group_C83410-012_C3L18_V1P0_S0_2
*P10 Group_C83410-012_C3L20_GND_1
*P26 Group_C83410-012_C3L20_V1P0_S0_2
*P11 Group_C83410-012_C3L24_GND_1
*P27 Group_C83410-012_C3L24_V1P0_S0_2
*P12 Group_C83410-012_C3L26_GND_1
*P28 Group_C83410-012_C3L26_V1P0_S0_2
*P13 Group_C83410-012_C3L28_GND_1
*P29 Group_C83410-012_C3L28_V1P0_S0_2
*P14 Group_C83410-012_C3L29_GND_1
*P30 Group_C83410-012_C3L29_V1P0_S0_2
*P15 Group_C97875-001_C3B11_GND_1
*P31 Group_C97875-001_C3B11_V1P0_S0_2
*P16 Group_C97875-001_C3B9_GND_1
*P32 Group_C97875-001_C3B9_V1P0_S0_2
*P17 Group_E16347-001_C2B12_GND_1
*P33 Group_E16347-001_C2B12_V1P0_S0_2
*P18 Group_E16347-001_C3B17_GND_1
*P34 Group_E16347-001_C3B17_V1P0_S0_2
*P3 U2A5_GND_Group
*P19 U2A5_V1P0_S0_Group
*N2 V1P0_S0
*P36 XW_GND_SINK_
*P35 XW_V1P0_S0_SINK_

*PORTS
*P3 O
*P4 O
*P5 O
*P6 O
*P7 O
*P8 O
*P9 O
*P10 O
*P11 O
*P12 O
*P13 O
*P14 O
*P15 O
*P16 O
*P17 O
*P18 O
*P19 O
*P20 O
*P21 O
*P22 O
*P23 O
*P24 O
*P25 O
*P26 O
*P27 O
*P28 O
*P29 O
*P30 O
*P31 O
*P32 O
*P33 O
*P34 O
*P35 I
*P36 I
*D_NET *N1 6.364274e+01
*CONN
*P *P4 O
*P *P5 O
*P *P6 O
*P *P7 O
*P *P8 O
*P *P9 O
*P *P10 O
*P *P11 O
*P *P12 O
*P *P13 O
*P *P14 O
*P *P15 O
*P *P16 O
*P *P17 O
*P *P18 O
*P *P3 O
*P *P36 I
*CAP
1 *P3 *P19 2.486045e-01
2 *P3 *P20 2.486045e-01
3 *P3 *P21 2.486045e-01
4 *P3 *P22 2.486045e-01
5 *P3 *P23 2.486045e-01
6 *P3 *P24 2.486045e-01
7 *P3 *P25 2.486045e-01
8 *P3 *P26 2.486045e-01
9 *P3 *P27 2.486045e-01
10 *P3 *P28 2.486045e-01
11 *P3 *P29 2.486045e-01
12 *P3 *P30 2.486045e-01
13 *P3 *P31 2.486045e-01
14 *P3 *P32 2.486045e-01
15 *P3 *P33 2.486045e-01
16 *P3 *P34 2.486045e-01
17 *P4 *P19 2.486045e-01
18 *P4 *P20 2.486045e-01
19 *P4 *P21 2.486045e-01
20 *P4 *P22 2.486045e-01
21 *P4 *P23 2.486045e-01
22 *P4 *P24 2.486045e-01
23 *P4 *P25 2.486045e-01
24 *P4 *P26 2.486045e-01
25 *P4 *P27 2.486045e-01
26 *P4 *P28 2.486045e-01
27 *P4 *P29 2.486045e-01
28 *P4 *P30 2.486045e-01
29 *P4 *P31 2.486045e-01
30 *P4 *P32 2.486045e-01
31 *P4 *P33 2.486045e-01
32 *P4 *P34 2.486045e-01
33 *P5 *P19 2.486045e-01
34 *P5 *P20 2.486045e-01
35 *P5 *P21 2.486045e-01
36 *P5 *P22 2.486045e-01
37 *P5 *P23 2.486045e-01
38 *P5 *P24 2.486045e-01
39 *P5 *P25 2.486045e-01
40 *P5 *P26 2.486045e-01
41 *P5 *P27 2.486045e-01
42 *P5 *P28 2.486045e-01
43 *P5 *P29 2.486045e-01
44 *P5 *P30 2.486045e-01
45 *P5 *P31 2.486045e-01
46 *P5 *P32 2.486045e-01
47 *P5 *P33 2.486045e-01
48 *P5 *P34 2.486045e-01
49 *P6 *P19 2.486045e-01
50 *P6 *P20 2.486045e-01
51 *P6 *P21 2.486045e-01
52 *P6 *P22 2.486045e-01
53 *P6 *P23 2.486045e-01
54 *P6 *P24 2.486045e-01
55 *P6 *P25 2.486045e-01
56 *P6 *P26 2.486045e-01
57 *P6 *P27 2.486045e-01
58 *P6 *P28 2.486045e-01
59 *P6 *P29 2.486045e-01
60 *P6 *P30 2.486045e-01
61 *P6 *P31 2.486045e-01
62 *P6 *P32 2.486045e-01
63 *P6 *P33 2.486045e-01
64 *P6 *P34 2.486045e-01
65 *P7 *P19 2.486045e-01
66 *P7 *P20 2.486045e-01
67 *P7 *P21 2.486045e-01
68 *P7 *P22 2.486045e-01
69 *P7 *P23 2.486045e-01
70 *P7 *P24 2.486045e-01
71 *P7 *P25 2.486045e-01
72 *P7 *P26 2.486045e-01
73 *P7 *P27 2.486045e-01
74 *P7 *P28 2.486045e-01
75 *P7 *P29 2.486045e-01
76 *P7 *P30 2.486045e-01
77 *P7 *P31 2.486045e-01
78 *P7 *P32 2.486045e-01
79 *P7 *P33 2.486045e-01
80 *P7 *P34 2.486045e-01
81 *P8 *P19 2.486045e-01
82 *P8 *P20 2.486045e-01
83 *P8 *P21 2.486045e-01
84 *P8 *P22 2.486045e-01
85 *P8 *P23 2.486045e-01
86 *P8 *P24 2.486045e-01
87 *P8 *P25 2.486045e-01
88 *P8 *P26 2.486045e-01
89 *P8 *P27 2.486045e-01
90 *P8 *P28 2.486045e-01
91 *P8 *P29 2.486045e-01
92 *P8 *P30 2.486045e-01
93 *P8 *P31 2.486045e-01
94 *P8 *P32 2.486045e-01
95 *P8 *P33 2.486045e-01
96 *P8 *P34 2.486045e-01
97 *P9 *P19 2.486045e-01
98 *P9 *P20 2.486045e-01
99 *P9 *P21 2.486045e-01
100 *P9 *P22 2.486045e-01
101 *P9 *P23 2.486045e-01
102 *P9 *P24 2.486045e-01
103 *P9 *P25 2.486045e-01
104 *P9 *P26 2.486045e-01
105 *P9 *P27 2.486045e-01
106 *P9 *P28 2.486045e-01
107 *P9 *P29 2.486045e-01
108 *P9 *P30 2.486045e-01
109 *P9 *P31 2.486045e-01
110 *P9 *P32 2.486045e-01
111 *P9 *P33 2.486045e-01
112 *P9 *P34 2.486045e-01
113 *P10 *P19 2.486045e-01
114 *P10 *P20 2.486045e-01
115 *P10 *P21 2.486045e-01
116 *P10 *P22 2.486045e-01
117 *P10 *P23 2.486045e-01
118 *P10 *P24 2.486045e-01
119 *P10 *P25 2.486045e-01
120 *P10 *P26 2.486045e-01
121 *P10 *P27 2.486045e-01
122 *P10 *P28 2.486045e-01
123 *P10 *P29 2.486045e-01
124 *P10 *P30 2.486045e-01
125 *P10 *P31 2.486045e-01
126 *P10 *P32 2.486045e-01
127 *P10 *P33 2.486045e-01
128 *P10 *P34 2.486045e-01
129 *P11 *P19 2.486045e-01
130 *P11 *P20 2.486045e-01
131 *P11 *P21 2.486045e-01
132 *P11 *P22 2.486045e-01
133 *P11 *P23 2.486045e-01
134 *P11 *P24 2.486045e-01
135 *P11 *P25 2.486045e-01
136 *P11 *P26 2.486045e-01
137 *P11 *P27 2.486045e-01
138 *P11 *P28 2.486045e-01
139 *P11 *P29 2.486045e-01
140 *P11 *P30 2.486045e-01
141 *P11 *P31 2.486045e-01
142 *P11 *P32 2.486045e-01
143 *P11 *P33 2.486045e-01
144 *P11 *P34 2.486045e-01
145 *P12 *P19 2.486045e-01
146 *P12 *P20 2.486045e-01
147 *P12 *P21 2.486045e-01
148 *P12 *P22 2.486045e-01
149 *P12 *P23 2.486045e-01
150 *P12 *P24 2.486045e-01
151 *P12 *P25 2.486045e-01
152 *P12 *P26 2.486045e-01
153 *P12 *P27 2.486045e-01
154 *P12 *P28 2.486045e-01
155 *P12 *P29 2.486045e-01
156 *P12 *P30 2.486045e-01
157 *P12 *P31 2.486045e-01
158 *P12 *P32 2.486045e-01
159 *P12 *P33 2.486045e-01
160 *P12 *P34 2.486045e-01
161 *P13 *P19 2.486045e-01
162 *P13 *P20 2.486045e-01
163 *P13 *P21 2.486045e-01
164 *P13 *P22 2.486045e-01
165 *P13 *P23 2.486045e-01
166 *P13 *P24 2.486045e-01
167 *P13 *P25 2.486045e-01
168 *P13 *P26 2.486045e-01
169 *P13 *P27 2.486045e-01
170 *P13 *P28 2.486045e-01
171 *P13 *P29 2.486045e-01
172 *P13 *P30 2.486045e-01
173 *P13 *P31 2.486045e-01
174 *P13 *P32 2.486045e-01
175 *P13 *P33 2.486045e-01
176 *P13 *P34 2.486045e-01
177 *P14 *P19 2.486045e-01
178 *P14 *P20 2.486045e-01
179 *P14 *P21 2.486045e-01
180 *P14 *P22 2.486045e-01
181 *P14 *P23 2.486045e-01
182 *P14 *P24 2.486045e-01
183 *P14 *P25 2.486045e-01
184 *P14 *P26 2.486045e-01
185 *P14 *P27 2.486045e-01
186 *P14 *P28 2.486045e-01
187 *P14 *P29 2.486045e-01
188 *P14 *P30 2.486045e-01
189 *P14 *P31 2.486045e-01
190 *P14 *P32 2.486045e-01
191 *P14 *P33 2.486045e-01
192 *P14 *P34 2.486045e-01
193 *P15 *P19 2.486045e-01
194 *P15 *P20 2.486045e-01
195 *P15 *P21 2.486045e-01
196 *P15 *P22 2.486045e-01
197 *P15 *P23 2.486045e-01
198 *P15 *P24 2.486045e-01
199 *P15 *P25 2.486045e-01
200 *P15 *P26 2.486045e-01
201 *P15 *P27 2.486045e-01
202 *P15 *P28 2.486045e-01
203 *P15 *P29 2.486045e-01
204 *P15 *P30 2.486045e-01
205 *P15 *P31 2.486045e-01
206 *P15 *P32 2.486045e-01
207 *P15 *P33 2.486045e-01
208 *P15 *P34 2.486045e-01
209 *P16 *P19 2.486045e-01
210 *P16 *P20 2.486045e-01
211 *P16 *P21 2.486045e-01
212 *P16 *P22 2.486045e-01
213 *P16 *P23 2.486045e-01
214 *P16 *P24 2.486045e-01
215 *P16 *P25 2.486045e-01
216 *P16 *P26 2.486045e-01
217 *P16 *P27 2.486045e-01
218 *P16 *P28 2.486045e-01
219 *P16 *P29 2.486045e-01
220 *P16 *P30 2.486045e-01
221 *P16 *P31 2.486045e-01
222 *P16 *P32 2.486045e-01
223 *P16 *P33 2.486045e-01
224 *P16 *P34 2.486045e-01
225 *P17 *P19 2.486045e-01
226 *P17 *P20 2.486045e-01
227 *P17 *P21 2.486045e-01
228 *P17 *P22 2.486045e-01
229 *P17 *P23 2.486045e-01
230 *P17 *P24 2.486045e-01
231 *P17 *P25 2.486045e-01
232 *P17 *P26 2.486045e-01
233 *P17 *P27 2.486045e-01
234 *P17 *P28 2.486045e-01
235 *P17 *P29 2.486045e-01
236 *P17 *P30 2.486045e-01
237 *P17 *P31 2.486045e-01
238 *P17 *P32 2.486045e-01
239 *P17 *P33 2.486045e-01
240 *P17 *P34 2.486045e-01
241 *P18 *P19 2.486045e-01
242 *P18 *P20 2.486045e-01
243 *P18 *P21 2.486045e-01
244 *P18 *P22 2.486045e-01
245 *P18 *P23 2.486045e-01
246 *P18 *P24 2.486045e-01
247 *P18 *P25 2.486045e-01
248 *P18 *P26 2.486045e-01
249 *P18 *P27 2.486045e-01
250 *P18 *P28 2.486045e-01
251 *P18 *P29 2.486045e-01
252 *P18 *P30 2.486045e-01
253 *P18 *P31 2.486045e-01
254 *P18 *P32 2.486045e-01
255 *P18 *P33 2.486045e-01
256 *P18 *P34 2.486045e-01
*RES
1 *P4 *P5 3.129651e-02
2 *P4 *P6 6.162747e-01
3 *P4 *P7 2.018983e+00
4 *P4 *P8 3.415827e+00
5 *P4 *P9 1.566836e+00
6 *P4 *P10 1.127169e+00
7 *P4 *P11 6.559219e-01
8 *P4 *P12 5.257978e-01
9 *P4 *P13 2.932697e-01
10 *P4 *P14 4.173766e-01
11 *P4 *P15 2.978453e-02
12 *P4 *P16 3.106918e-02
13 *P4 *P17 9.888440e-03
14 *P4 *P18 5.697217e-02
15 *P4 *P36 3.641617e-02
16 *P5 *P6 1.347596e+00
17 *P5 *P7 2.429429e+00
18 *P5 *P8 4.230324e+00
19 *P5 *P9 1.330560e+00
20 *P5 *P10 1.481044e+00
21 *P5 *P11 8.308564e-01
22 *P5 *P12 1.080668e+00
23 *P5 *P13 4.259490e-01
24 *P5 *P14 6.919924e-01
25 *P5 *P15 1.899076e-02
26 *P5 *P16 1.894571e-02
27 *P5 *P17 1.575309e-02
28 *P5 *P18 2.909375e-02
29 *P5 *P36 2.472492e-02
30 *P6 *P7 2.391814e-02
31 *P6 *P8 3.797684e-02
32 *P6 *P9 1.191512e-01
33 *P6 *P10 2.938456e-02
34 *P6 *P11 9.859195e-02
35 *P6 *P12 2.320009e-03
36 *P6 *P13 4.293529e-02
37 *P6 *P14 9.546949e-03
38 *P6 *P15 1.191854e+00
39 *P6 *P16 1.254447e+00
40 *P6 *P17 4.987157e-01
41 *P6 *P18 1.376878e+00
42 *P6 *P36 1.398339e+00
43 *P7 *P8 1.056767e-03
44 *P7 *P9 1.567104e-02
45 *P7 *P10 5.339605e-02
46 *P7 *P11 2.150921e-01
47 *P7 *P12 7.256187e-02
48 *P7 *P13 1.982852e-01
49 *P7 *P14 1.696813e-01
50 *P7 *P15 8.538087e-01
51 *P7 *P16 9.674166e-01
52 *P7 *P17 1.457560e+00
53 *P7 *P18 1.577613e+00
54 *P7 *P36 8.597921e-01
55 *P8 *P9 2.735495e-02
56 *P8 *P10 9.205215e-02
57 *P8 *P11 3.768068e-01
58 *P8 *P12 1.164201e-01
59 *P8 *P13 3.439355e-01
60 *P8 *P14 2.804481e-01
61 *P8 *P15 1.508100e+00
62 *P8 *P16 1.708087e+00
63 *P8 *P17 2.489379e+00
64 *P8 *P18 2.782943e+00
65 *P8 *P36 1.519733e+00
66 *P9 *P10 8.334412e-03
67 *P9 *P11 3.920386e-02
68 *P9 *P12 1.004405e-01
69 *P9 *P13 4.069892e-02
70 *P9 *P14 6.594089e-02
71 *P9 *P15 5.252359e-01
72 *P9 *P16 5.770707e-01
73 *P9 *P17 9.415369e-01
74 *P9 *P18 6.926516e-01
75 *P9 *P36 5.626392e-01
76 *P10 *P11 1.075513e-02
77 *P10 *P12 1.394274e-02
78 *P10 *P13 1.097229e-02
79 *P10 *P14 1.040818e-02
80 *P10 *P15 8.818568e-01
81 *P10 *P16 9.434310e-01
82 *P10 *P17 7.571160e-01
83 *P10 *P18 9.523319e-01
84 *P10 *P36 9.974379e-01
85 *P11 *P12 4.620357e-02
86 *P11 *P13 1.830564e-03
87 *P11 *P14 1.163422e-02
88 *P11 *P15 5.307061e-01
89 *P11 *P16 5.624077e-01
90 *P11 *P17 4.271894e-01
91 *P11 *P18 5.228116e-01
92 *P11 *P36 6.126069e-01
93 *P12 *P13 1.932686e-02
94 *P12 *P14 1.915102e-03
95 *P12 *P15 9.927528e-01
96 *P12 *P16 1.035694e+00
97 *P12 *P17 4.109210e-01
98 *P12 *P18 1.045325e+00
99 *P12 *P36 1.188515e+00
100 *P13 *P14 3.160042e-03
101 *P13 *P15 3.233825e-01
102 *P13 *P16 3.391886e-01
103 *P13 *P17 1.974105e-01
104 *P13 *P18 3.045611e-01
105 *P13 *P36 3.817684e-01
106 *P14 *P15 5.819444e-01
107 *P14 *P16 6.073832e-01
108 *P14 *P17 2.955879e-01
109 *P14 *P18 5.552544e-01
110 *P14 *P36 6.950099e-01
111 *P15 *P16 7.487758e-04
112 *P15 *P17 1.841842e-02
113 *P15 *P18 2.431993e-02
114 *P15 *P36 2.945246e-03
115 *P16 *P17 1.893497e-02
116 *P16 *P18 2.429532e-02
117 *P16 *P36 4.337281e-03
118 *P17 *P18 2.792484e-02
119 *P17 *P36 2.297823e-02
120 *P18 *P36 3.151707e-02
121 *P3 *P4 3.528042e-03
122 *P3 *P5 4.149212e-03
123 *P3 *P6 4.416357e-04
124 *P3 *P7 6.025860e-04
125 *P3 *P8 1.022445e-03
126 *P3 *P9 7.673083e-04
127 *P3 *P10 1.404689e-03
128 *P3 *P11 1.072334e-03
129 *P3 *P12 6.179431e-04
130 *P3 *P13 6.503350e-04
131 *P3 *P14 7.625357e-04
132 *P3 *P15 2.287160e-03
133 *P3 *P16 2.480282e-03
134 *P3 *P17 2.303765e-03
135 *P3 *P18 2.411443e-03
136 *P3 *P36 2.507419e-03
*END
*D_NET *N2 6.364274e+01
*CONN
*P *P20 O
*P *P21 O
*P *P22 O
*P *P23 O
*P *P24 O
*P *P25 O
*P *P26 O
*P *P27 O
*P *P28 O
*P *P29 O
*P *P30 O
*P *P31 O
*P *P32 O
*P *P33 O
*P *P34 O
*P *P19 O
*P *P35 I
*CAP
1 *P19 *P3 2.486045e-01
2 *P19 *P4 2.486045e-01
3 *P19 *P5 2.486045e-01
4 *P19 *P6 2.486045e-01
5 *P19 *P7 2.486045e-01
6 *P19 *P8 2.486045e-01
7 *P19 *P9 2.486045e-01
8 *P19 *P10 2.486045e-01
9 *P19 *P11 2.486045e-01
10 *P19 *P12 2.486045e-01
11 *P19 *P13 2.486045e-01
12 *P19 *P14 2.486045e-01
13 *P19 *P15 2.486045e-01
14 *P19 *P16 2.486045e-01
15 *P19 *P17 2.486045e-01
16 *P19 *P18 2.486045e-01
17 *P20 *P3 2.486045e-01
18 *P20 *P4 2.486045e-01
19 *P20 *P5 2.486045e-01
20 *P20 *P6 2.486045e-01
21 *P20 *P7 2.486045e-01
22 *P20 *P8 2.486045e-01
23 *P20 *P9 2.486045e-01
24 *P20 *P10 2.486045e-01
25 *P20 *P11 2.486045e-01
26 *P20 *P12 2.486045e-01
27 *P20 *P13 2.486045e-01
28 *P20 *P14 2.486045e-01
29 *P20 *P15 2.486045e-01
30 *P20 *P16 2.486045e-01
31 *P20 *P17 2.486045e-01
32 *P20 *P18 2.486045e-01
33 *P21 *P3 2.486045e-01
34 *P21 *P4 2.486045e-01
35 *P21 *P5 2.486045e-01
36 *P21 *P6 2.486045e-01
37 *P21 *P7 2.486045e-01
38 *P21 *P8 2.486045e-01
39 *P21 *P9 2.486045e-01
40 *P21 *P10 2.486045e-01
41 *P21 *P11 2.486045e-01
42 *P21 *P12 2.486045e-01
43 *P21 *P13 2.486045e-01
44 *P21 *P14 2.486045e-01
45 *P21 *P15 2.486045e-01
46 *P21 *P16 2.486045e-01
47 *P21 *P17 2.486045e-01
48 *P21 *P18 2.486045e-01
49 *P22 *P3 2.486045e-01
50 *P22 *P4 2.486045e-01
51 *P22 *P5 2.486045e-01
52 *P22 *P6 2.486045e-01
53 *P22 *P7 2.486045e-01
54 *P22 *P8 2.486045e-01
55 *P22 *P9 2.486045e-01
56 *P22 *P10 2.486045e-01
57 *P22 *P11 2.486045e-01
58 *P22 *P12 2.486045e-01
59 *P22 *P13 2.486045e-01
60 *P22 *P14 2.486045e-01
61 *P22 *P15 2.486045e-01
62 *P22 *P16 2.486045e-01
63 *P22 *P17 2.486045e-01
64 *P22 *P18 2.486045e-01
65 *P23 *P3 2.486045e-01
66 *P23 *P4 2.486045e-01
67 *P23 *P5 2.486045e-01
68 *P23 *P6 2.486045e-01
69 *P23 *P7 2.486045e-01
70 *P23 *P8 2.486045e-01
71 *P23 *P9 2.486045e-01
72 *P23 *P10 2.486045e-01
73 *P23 *P11 2.486045e-01
74 *P23 *P12 2.486045e-01
75 *P23 *P13 2.486045e-01
76 *P23 *P14 2.486045e-01
77 *P23 *P15 2.486045e-01
78 *P23 *P16 2.486045e-01
79 *P23 *P17 2.486045e-01
80 *P23 *P18 2.486045e-01
81 *P24 *P3 2.486045e-01
82 *P24 *P4 2.486045e-01
83 *P24 *P5 2.486045e-01
84 *P24 *P6 2.486045e-01
85 *P24 *P7 2.486045e-01
86 *P24 *P8 2.486045e-01
87 *P24 *P9 2.486045e-01
88 *P24 *P10 2.486045e-01
89 *P24 *P11 2.486045e-01
90 *P24 *P12 2.486045e-01
91 *P24 *P13 2.486045e-01
92 *P24 *P14 2.486045e-01
93 *P24 *P15 2.486045e-01
94 *P24 *P16 2.486045e-01
95 *P24 *P17 2.486045e-01
96 *P24 *P18 2.486045e-01
97 *P25 *P3 2.486045e-01
98 *P25 *P4 2.486045e-01
99 *P25 *P5 2.486045e-01
100 *P25 *P6 2.486045e-01
101 *P25 *P7 2.486045e-01
102 *P25 *P8 2.486045e-01
103 *P25 *P9 2.486045e-01
104 *P25 *P10 2.486045e-01
105 *P25 *P11 2.486045e-01
106 *P25 *P12 2.486045e-01
107 *P25 *P13 2.486045e-01
108 *P25 *P14 2.486045e-01
109 *P25 *P15 2.486045e-01
110 *P25 *P16 2.486045e-01
111 *P25 *P17 2.486045e-01
112 *P25 *P18 2.486045e-01
113 *P26 *P3 2.486045e-01
114 *P26 *P4 2.486045e-01
115 *P26 *P5 2.486045e-01
116 *P26 *P6 2.486045e-01
117 *P26 *P7 2.486045e-01
118 *P26 *P8 2.486045e-01
119 *P26 *P9 2.486045e-01
120 *P26 *P10 2.486045e-01
121 *P26 *P11 2.486045e-01
122 *P26 *P12 2.486045e-01
123 *P26 *P13 2.486045e-01
124 *P26 *P14 2.486045e-01
125 *P26 *P15 2.486045e-01
126 *P26 *P16 2.486045e-01
127 *P26 *P17 2.486045e-01
128 *P26 *P18 2.486045e-01
129 *P27 *P3 2.486045e-01
130 *P27 *P4 2.486045e-01
131 *P27 *P5 2.486045e-01
132 *P27 *P6 2.486045e-01
133 *P27 *P7 2.486045e-01
134 *P27 *P8 2.486045e-01
135 *P27 *P9 2.486045e-01
136 *P27 *P10 2.486045e-01
137 *P27 *P11 2.486045e-01
138 *P27 *P12 2.486045e-01
139 *P27 *P13 2.486045e-01
140 *P27 *P14 2.486045e-01
141 *P27 *P15 2.486045e-01
142 *P27 *P16 2.486045e-01
143 *P27 *P17 2.486045e-01
144 *P27 *P18 2.486045e-01
145 *P28 *P3 2.486045e-01
146 *P28 *P4 2.486045e-01
147 *P28 *P5 2.486045e-01
148 *P28 *P6 2.486045e-01
149 *P28 *P7 2.486045e-01
150 *P28 *P8 2.486045e-01
151 *P28 *P9 2.486045e-01
152 *P28 *P10 2.486045e-01
153 *P28 *P11 2.486045e-01
154 *P28 *P12 2.486045e-01
155 *P28 *P13 2.486045e-01
156 *P28 *P14 2.486045e-01
157 *P28 *P15 2.486045e-01
158 *P28 *P16 2.486045e-01
159 *P28 *P17 2.486045e-01
160 *P28 *P18 2.486045e-01
161 *P29 *P3 2.486045e-01
162 *P29 *P4 2.486045e-01
163 *P29 *P5 2.486045e-01
164 *P29 *P6 2.486045e-01
165 *P29 *P7 2.486045e-01
166 *P29 *P8 2.486045e-01
167 *P29 *P9 2.486045e-01
168 *P29 *P10 2.486045e-01
169 *P29 *P11 2.486045e-01
170 *P29 *P12 2.486045e-01
171 *P29 *P13 2.486045e-01
172 *P29 *P14 2.486045e-01
173 *P29 *P15 2.486045e-01
174 *P29 *P16 2.486045e-01
175 *P29 *P17 2.486045e-01
176 *P29 *P18 2.486045e-01
177 *P30 *P3 2.486045e-01
178 *P30 *P4 2.486045e-01
179 *P30 *P5 2.486045e-01
180 *P30 *P6 2.486045e-01
181 *P30 *P7 2.486045e-01
182 *P30 *P8 2.486045e-01
183 *P30 *P9 2.486045e-01
184 *P30 *P10 2.486045e-01
185 *P30 *P11 2.486045e-01
186 *P30 *P12 2.486045e-01
187 *P30 *P13 2.486045e-01
188 *P30 *P14 2.486045e-01
189 *P30 *P15 2.486045e-01
190 *P30 *P16 2.486045e-01
191 *P30 *P17 2.486045e-01
192 *P30 *P18 2.486045e-01
193 *P31 *P3 2.486045e-01
194 *P31 *P4 2.486045e-01
195 *P31 *P5 2.486045e-01
196 *P31 *P6 2.486045e-01
197 *P31 *P7 2.486045e-01
198 *P31 *P8 2.486045e-01
199 *P31 *P9 2.486045e-01
200 *P31 *P10 2.486045e-01
201 *P31 *P11 2.486045e-01
202 *P31 *P12 2.486045e-01
203 *P31 *P13 2.486045e-01
204 *P31 *P14 2.486045e-01
205 *P31 *P15 2.486045e-01
206 *P31 *P16 2.486045e-01
207 *P31 *P17 2.486045e-01
208 *P31 *P18 2.486045e-01
209 *P32 *P3 2.486045e-01
210 *P32 *P4 2.486045e-01
211 *P32 *P5 2.486045e-01
212 *P32 *P6 2.486045e-01
213 *P32 *P7 2.486045e-01
214 *P32 *P8 2.486045e-01
215 *P32 *P9 2.486045e-01
216 *P32 *P10 2.486045e-01
217 *P32 *P11 2.486045e-01
218 *P32 *P12 2.486045e-01
219 *P32 *P13 2.486045e-01
220 *P32 *P14 2.486045e-01
221 *P32 *P15 2.486045e-01
222 *P32 *P16 2.486045e-01
223 *P32 *P17 2.486045e-01
224 *P32 *P18 2.486045e-01
225 *P33 *P3 2.486045e-01
226 *P33 *P4 2.486045e-01
227 *P33 *P5 2.486045e-01
228 *P33 *P6 2.486045e-01
229 *P33 *P7 2.486045e-01
230 *P33 *P8 2.486045e-01
231 *P33 *P9 2.486045e-01
232 *P33 *P10 2.486045e-01
233 *P33 *P11 2.486045e-01
234 *P33 *P12 2.486045e-01
235 *P33 *P13 2.486045e-01
236 *P33 *P14 2.486045e-01
237 *P33 *P15 2.486045e-01
238 *P33 *P16 2.486045e-01
239 *P33 *P17 2.486045e-01
240 *P33 *P18 2.486045e-01
241 *P34 *P3 2.486045e-01
242 *P34 *P4 2.486045e-01
243 *P34 *P5 2.486045e-01
244 *P34 *P6 2.486045e-01
245 *P34 *P7 2.486045e-01
246 *P34 *P8 2.486045e-01
247 *P34 *P9 2.486045e-01
248 *P34 *P10 2.486045e-01
249 *P34 *P11 2.486045e-01
250 *P34 *P12 2.486045e-01
251 *P34 *P13 2.486045e-01
252 *P34 *P14 2.486045e-01
253 *P34 *P15 2.486045e-01
254 *P34 *P16 2.486045e-01
255 *P34 *P17 2.486045e-01
256 *P34 *P18 2.486045e-01
*RES
1 *P20 *P21 1.171072e-02
2 *P20 *P22 5.273684e-01
3 *P20 *P23 1.375314e+00
4 *P20 *P24 9.812274e-01
5 *P20 *P25 2.048753e-01
6 *P20 *P26 5.398154e-01
7 *P20 *P27 1.611058e-01
8 *P20 *P28 6.761194e-01
9 *P20 *P29 1.954631e-01
10 *P20 *P30 2.105836e-01
11 *P20 *P31 2.284273e-02
12 *P20 *P32 1.730341e-02
13 *P20 *P33 2.296554e-03
14 *P20 *P34 9.118348e-03
15 *P20 *P35 4.283272e-02
16 *P21 *P22 8.896194e-01
17 *P21 *P23 2.312435e+00
18 *P21 *P24 1.650995e+00
19 *P21 *P25 3.446324e-01
20 *P21 *P26 9.081936e-01
21 *P21 *P27 2.712154e-01
22 *P21 *P28 1.141981e+00
23 *P21 *P29 3.303456e-01
24 *P21 *P30 3.560144e-01
25 *P21 *P31 1.049102e-02
26 *P21 *P32 7.885120e-03
27 *P21 *P33 1.152338e-02
28 *P21 *P34 1.257997e-02
29 *P21 *P35 1.984497e-02
30 *P22 *P23 1.082866e-02
31 *P22 *P24 2.763793e-03
32 *P22 *P25 1.112869e-02
33 *P22 *P26 2.246385e-03
34 *P22 *P27 2.472210e-02
35 *P22 *P28 1.171591e-03
36 *P22 *P29 9.413553e-03
37 *P22 *P30 7.780664e-03
38 *P22 *P31 1.829197e+00
39 *P22 *P32 1.382788e+00
40 *P22 *P33 5.001081e-01
41 *P22 *P34 2.598723e-01
42 *P22 *P35 3.437763e+00
43 *P23 *P24 6.250385e-03
44 *P23 *P25 1.304318e-02
45 *P23 *P26 3.857695e-03
46 *P23 *P27 6.803984e-02
47 *P23 *P28 6.202149e-02
48 *P23 *P29 1.611991e-01
49 *P23 *P30 1.730848e-01
50 *P23 *P31 4.755738e+00
51 *P23 *P32 3.595085e+00
52 *P23 *P33 1.304345e+00
53 *P23 *P34 6.691899e-01
54 *P23 *P35 8.937948e+00
55 *P24 *P25 1.319304e-02
56 *P24 *P26 3.085439e-03
57 *P24 *P27 5.241561e-02
58 *P24 *P28 1.766504e-02
59 *P24 *P29 7.601361e-02
60 *P24 *P30 7.364202e-02
61 *P24 *P31 3.395270e+00
62 *P24 *P32 2.566648e+00
63 *P24 *P33 9.305752e-01
64 *P24 *P34 4.787462e-01
65 *P24 *P35 6.381066e+00
66 *P25 *P26 1.108942e-03
67 *P25 *P27 2.382705e-03
68 *P25 *P28 3.721481e-02
69 *P25 *P29 1.228970e-02
70 *P25 *P30 1.699002e-02
71 *P25 *P31 7.087477e-01
72 *P25 *P32 5.357762e-01
73 *P25 *P33 1.943008e-01
74 *P25 *P34 9.986281e-02
75 *P25 *P35 1.332021e+00
76 *P26 *P27 8.909159e-03
77 *P26 *P28 1.505621e-02
78 *P26 *P29 3.147946e-02
79 *P26 *P30 3.681672e-02
80 *P26 *P31 1.867711e+00
81 *P26 *P32 1.411892e+00
82 *P26 *P33 5.119510e-01
83 *P26 *P34 2.632786e-01
84 *P26 *P35 3.510175e+00
85 *P27 *P28 3.154956e-02
86 *P27 *P29 5.541738e-03
87 *P27 *P30 7.989652e-03
88 *P27 *P31 5.577352e-01
89 *P27 *P32 4.216196e-01
90 *P27 *P33 1.527870e-01
91 *P27 *P34 7.876334e-02
92 *P27 *P35 1.048205e+00
93 *P28 *P29 8.238032e-03
94 *P28 *P30 6.678678e-03
95 *P28 *P31 2.347901e+00
96 *P28 *P32 1.774911e+00
97 *P28 *P33 6.411468e-01
98 *P28 *P34 3.348044e-01
99 *P28 *P35 4.412589e+00
100 *P29 *P30 9.794370e-04
101 *P29 *P31 6.791598e-01
102 *P29 *P32 5.134161e-01
103 *P29 *P33 1.853494e-01
104 *P29 *P34 9.702400e-02
105 *P29 *P35 1.276394e+00
106 *P30 *P31 7.319172e-01
107 *P30 *P32 5.532989e-01
108 *P30 *P33 1.996857e-01
109 *P30 *P34 1.046605e-01
110 *P30 *P35 1.375544e+00
111 *P31 *P32 6.416349e-04
112 *P31 *P33 2.256395e-02
113 *P31 *P34 2.620051e-02
114 *P31 *P35 1.270723e-03
115 *P32 *P33 1.708992e-02
116 *P32 *P34 1.979508e-02
117 *P32 *P35 2.169785e-03
118 *P33 *P34 8.701845e-03
119 *P33 *P35 4.231636e-02
120 *P34 *P35 4.927205e-02
121 *P19 *P20 1.692570e-02
122 *P19 *P21 2.851731e-02
123 *P19 *P22 6.559298e-04
124 *P19 *P23 1.560854e-03
125 *P19 *P24 6.352764e-04
126 *P19 *P25 9.533963e-04
127 *P19 *P26 9.498352e-04
128 *P19 *P27 1.027034e-03
129 *P19 *P28 1.157495e-03
130 *P19 *P29 1.363325e-03
131 *P19 *P30 1.444487e-03
132 *P19 *P31 5.864068e-02
133 *P19 *P32 4.432949e-02
134 *P19 *P33 1.605135e-02
135 *P19 *P34 8.301280e-03
136 *P19 *P35 1.102088e-01
*END
